xflr5 v6.61

 Calculated polar for: SD7037_ORIG_Spline

 1 1 Reynolds number fixed          Mach number fixed         

 xtrf =   1.000 (top)        1.000 (bottom)
 Mach =   0.000     Re =     0.200 e 6     Ncrit =   9.000

  alpha     CL        CD       CDp       Cm    Top Xtr Bot Xtr   Cpmin    Chinge    XCp    
 ------- -------- --------- --------- -------- ------- ------- -------- --------- ---------
  -2.500   0.0329   0.01349   0.00641  -0.0732  0.9412  0.1587  -1.5272   0.0000   0.0000   0.0000   2.4999
  -2.000   0.1075   0.01157   0.00595  -0.0776  0.9314  0.5222  -1.1560   0.0000   0.0000   0.0000   0.9767
  -1.500   0.1648   0.01048   0.00579  -0.0760  0.9175  0.8137  -0.8614   0.0000   0.0000   0.0000   0.7133
  -1.000   0.2791   0.00985   0.00516  -0.0861  0.9112  1.0000  -0.5040   0.0000   0.0000   0.0000   0.5591
  -0.500   0.3345   0.00955   0.00462  -0.0854  0.8902  1.0000  -0.5464   0.0000   0.0000   0.0000   0.5050
   0.000   0.3860   0.00929   0.00417  -0.0837  0.8663  1.0000  -0.5949   0.0000   0.0000   0.0000   0.4659
   0.500   0.4364   0.00909   0.00379  -0.0817  0.8380  1.0000  -0.6521   0.0000   0.0000   0.0000   0.4358
   1.000   0.4881   0.00894   0.00346  -0.0800  0.8054  1.0000  -0.7233   0.0000   0.0000   0.0000   0.4120
   1.500   0.5398   0.00895   0.00326  -0.0784  0.7655  1.0000  -0.8053   0.0000   0.0000   0.0000   0.3929
   2.000   0.5915   0.00913   0.00321  -0.0769  0.7213  1.0000  -0.8949   0.0000   0.0000   0.0000   0.3773
   2.500   0.6424   0.00947   0.00329  -0.0754  0.6753  1.0000  -0.9915   0.0000   0.0000   0.0000   0.3642
   3.000   0.6927   0.00988   0.00349  -0.0739  0.6287  1.0000  -1.0914   0.0000   0.0000   0.0000   0.3532
   3.500   0.7428   0.01035   0.00379  -0.0726  0.5847  1.0000  -1.1979   0.0000   0.0000   0.0000   0.3438
   4.000   0.7926   0.01088   0.00415  -0.0713  0.5430  1.0000  -1.3103   0.0000   0.0000   0.0000   0.3355
   4.500   0.8421   0.01141   0.00460  -0.0700  0.5012  1.0000  -1.4302   0.0000   0.0000   0.0000   0.3282
   5.000   0.8908   0.01201   0.00510  -0.0687  0.4598  1.0000  -1.5600   0.0000   0.0000   0.0000   0.3217
   5.500   0.9386   0.01265   0.00568  -0.0672  0.4149  1.0000  -1.8225   0.0000   0.0000   0.0000   0.3156
   6.000   0.9846   0.01340   0.00636  -0.0655  0.3647  1.0000  -2.2699   0.0000   0.0000   0.0000   0.3100
   6.500   1.0284   0.01435   0.00719  -0.0636  0.3063  1.0000  -2.7335   0.0000   0.0000   0.0000   0.3048
   7.000   1.0692   0.01564   0.00824  -0.0614  0.2508  1.0000  -3.2053   0.0000   0.0000   0.0000   0.2997
   7.500   1.1103   0.01702   0.00954  -0.0592  0.2100  1.0000  -3.7362   0.0000   0.0000   0.0000   0.2951
   8.000   1.1500   0.01848   0.01091  -0.0571  0.1786  1.0000  -4.2975   0.0000   0.0000   0.0000   0.2907
   8.500   1.1898   0.01950   0.01199  -0.0551  0.1421  1.0000  -4.8933   0.0000   0.0000   0.0000   0.2867
   9.000   1.2289   0.02066   0.01322  -0.0530  0.1077  1.0000  -5.4789   0.0000   0.0000   0.0000   0.2828
   9.500   1.2413   0.02436   0.01629  -0.0475  0.0306  1.0000  -5.6910   0.0000   0.0000   0.0000   0.2773
  10.000   1.2516   0.02728   0.01940  -0.0414  0.0227  1.0000  -5.9418   0.0000   0.0000   0.0000   0.2714
  10.500   1.2537   0.03071   0.02303  -0.0353  0.0203  1.0000  -6.1565   0.0000   0.0000   0.0000   0.2658
  11.000   1.2596   0.03436   0.02689  -0.0306  0.0187  1.0000  -6.3904   0.0000   0.0000   0.0000   0.2612
  11.500   1.2658   0.03864   0.03129  -0.0270  0.0176  1.0000  -6.6353   0.0000   0.0000   0.0000   0.2574
  12.000   1.2822   0.04364   0.03644  -0.0243  0.0168  1.0000  -6.8747   0.0000   0.0000   0.0000   0.2543
  12.500   1.2928   0.04858   0.04182  -0.0221  0.0163  1.0000  -7.0800   0.0000   0.0000   0.0000   0.2516
  13.000   1.2930   0.05452   0.04823  -0.0206  0.0156  1.0000  -7.2282   0.0000   0.0000   0.0000   0.2496
  13.500   1.2848   0.06168   0.05586  -0.0204  0.0152  1.0000  -7.3170   0.0000   0.0000   0.0000   0.2487
  14.000   1.2669   0.07069   0.06536  -0.0222  0.0151  1.0000  -7.3005   0.0000   0.0000   0.0000   0.2494
  14.500   1.2394   0.08196   0.07713  -0.0265  0.0152  1.0000  -7.1753   0.0000   0.0000   0.0000   0.2524
  15.000   1.2067   0.09545   0.09108  -0.0337  0.0155  1.0000  -6.9762   0.0000   0.0000   0.0000   0.2580
  15.500   1.1718   0.11104   0.10708  -0.0435  0.0158  1.0000  -6.7092   0.0000   0.0000   0.0000   0.2664
  16.000   1.1364   0.12864   0.12501  -0.0555  0.0161  1.0000  -6.3602   0.0000   0.0000   0.0000   0.2775
  16.500   1.1028   0.14778   0.14440  -0.0688  0.0166  1.0000  -5.9086   0.0000   0.0000   0.0000   0.2907

